Circuit: * Z:\Documents\Education\Courses\USU\ECE 2290\lab11\lab11.asc

.OP point found by inspection.

Date: Mon Apr 14 20:28:44 2014
Total elapsed time: 0.031 seconds.

tnom = 27
temp = 27
method = modified trap
totiter = 2110
traniter = 2110
tranpoints = 1056
accept = 1054
rejected = 2
matrix size = 16
fillins = 0
solver = Normal
Matrix Compiler1: 520 bytes object code size  0.4/0.3/[0.2]
Matrix Compiler2: 1.00 KB object code size  0.3/0.3/[0.2]


