Circuit: * Z:\Documents\Education\Courses\Current\ECE 2290-01\lab9\lab9.asc


Date: Tue Feb 25 03:30:28 2014
Total elapsed time: 0.031 seconds.

tnom = 27
temp = 27
method = trap
totiter = 0
traniter = 0
tranpoints = 0
accept = 0
rejected = 0
matrix size = 12
fillins = 0
solver = Normal

