Circuit: * Z:\Documents\Education\Courses\Current\ECE 2290-01\lab8\lab8-2.asc

.OP point found by inspection.

Date: Sat Jan 18 12:58:42 2014
Total elapsed time: 0.032 seconds.

tnom = 27
temp = 27
method = modified trap
totiter = 3018
traniter = 3018
tranpoints = 1510
accept = 1293
rejected = 217
matrix size = 5
fillins = 0
solver = Normal
Matrix Compiler1: 150 bytes object code size  0.3/0.3/[0.3]
Matrix Compiler2: 321 bytes object code size  0.3/0.3/[0.3]


