Circuit: * Z:\Documents\Education\Courses\Current\ECE 2290-01\lab8\lab8-1.asc

.OP point found by inspection.

Date: Sat Jan 18 12:56:54 2014
Total elapsed time: 0.140 seconds.

tnom = 27
temp = 27
method = modified trap
totiter = 2730
traniter = 2730
tranpoints = 1366
accept = 1297
rejected = 69
matrix size = 5
fillins = 0
solver = Normal
Matrix Compiler1: 150 bytes object code size  0.3/0.2/[0.2]
Matrix Compiler2: 321 bytes object code size  0.2/0.2/[0.2]


