Circuit: * Z:\Documents\Education\Courses\Current\ECE 2290-01\lab8\lab8-3.asc

.OP point found by inspection.

Date: Sat Jan 18 12:59:18 2014
Total elapsed time: 0.048 seconds.

tnom = 27
temp = 27
method = modified trap
totiter = 2832
traniter = 2832
tranpoints = 1417
accept = 1329
rejected = 88
matrix size = 5
fillins = 0
solver = Normal
Matrix Compiler1: 150 bytes object code size  0.3/1.1/[0.2]
Matrix Compiler2: 321 bytes object code size  0.2/0.2/[0.2]


