Circuit: * Z:\Documents\Education\Courses\USU\ECE 2290\lab12\lab12.asc


Date: Thu Apr 24 10:06:36 2014
Total elapsed time: 0.015 seconds.

tnom = 27
temp = 27
method = trap
totiter = 0
traniter = 0
tranpoints = 0
accept = 0
rejected = 0
matrix size = 6
fillins = 1
solver = Normal

